*Heading
** Job name: PseudoCoupling Model name: Model-1
** Generated by: Abaqus/CAE 2019
*Preprint, echo=NO, model=NO, history=NO, contact=NO
**
** PARTS
**
*Part, name=Part
*End Part
**  
**
** ASSEMBLY
**
*Assembly, name=Assembly
**  
*Instance, name=Part-1, part=Part
*Node
      1,          43.,          80.
      2,          43.,          76.
      3,          80.,          76.
      4,          80.,          80.
      5,          38.,          80.
      6,          38.,          76.
      7,           0.,          38.
      8,          80.,          38.
      9,           0.,          76.
     10,           0.,          80.
     11,           0.,           0.
     12,          80.,           0.
     13,          43.,          79.
     14,          43.,          78.
     15,          43.,          77.
     16,          44.,          76.
     17,          45.,          76.
     18,          46.,          76.
     19,          47.,          76.
     20,          48.,          76.
** ... 6541 like lines cut
*Element, type=CPE4P
  1,   1,  13, 485,  90
  2,  13,  14, 486, 485
  3,  14,  15, 487, 486
  4,  15,   2,  16, 487
  5,  90, 485, 488,  89
  6, 485, 486, 489, 488
  7, 486, 487, 490, 489
  8, 487,  16,  17, 490
  9,  89, 488, 491,  88
 10, 488, 489, 492, 491
 11, 489, 490, 493, 492
 12, 490,  17,  18, 493
 13,  88, 491, 494,  87
 14, 491, 492, 495, 494
 15, 492, 493, 496, 495
 16, 493,  18,  19, 496
 17,  87, 494, 497,  86
 18, 494, 495, 498, 497
 19, 495, 496, 499, 498
 20, 496,  19,  20, 499
** ... 6380 like lines cut
*Nset, nset=All, generate
    1,  6561,     1
*Elset, elset=All, generate
    1,  6400,     1
*Nset, nset=A
    7,    8,   11,   12,  102,  103,  104,  105,  106,  107,  108,  109,  110,  111,  112,  113
  114,  115,  116,  117,  118,  119,  120,  121,  122,  123,  124,  125,  126,  127,  128,  129
  130,  131,  132,  133,  134,  135,  136,  137,  138,  139,  140,  141,  142,  143,  144,  145
  146,  147,  148,  149,  150,  151,  152,  153,  154,  155,  156,  157,  158,  159,  160,  161
  162,  163,  164,  165,  166,  167,  168,  169,  170,  171,  172,  173,  174,  175,  176,  177
  178,  179,  180,  332,  333,  334,  335,  336,  337,  338,  339,  340,  341,  342,  343,  344
  345,  346,  347,  348,  349,  350,  351,  352,  353,  354,  355,  356,  357,  358,  359,  360
  361,  362,  363,  364,  365,  366,  367,  368,  369,  370,  371,  372,  373,  374,  375,  376
  377,  378,  379,  380,  381,  382,  383,  384,  385,  386,  387,  388,  389,  390,  391,  392
  393,  394,  395,  396,  397,  398,  399,  400,  401,  402,  403,  404,  405,  406,  407,  408
  409,  410,  411,  412,  413,  414,  415,  416,  417,  418,  419,  420,  421,  422,  423,  424
  425,  426,  427,  428,  429,  430,  431,  432,  433,  434,  435,  436,  437,  438,  439,  440
  441,  442,  443,  444,  445,  446,  447,  448,  449,  450,  451,  452,  453,  454,  455,  456
  457,  458,  459,  460,  461,  462,  463,  464,  465,  466,  467,  468,  469,  470,  471,  472
  473,  474,  475,  476,  477,  478,  479,  480,  481,  482,  483,  484, 3639, 3640, 3641, 3642
 3643, 3644, 3645, 3646, 3647, 3648, 3649, 3650, 3651, 3652, 3653, 3654, 3655, 3656, 3657, 3658
 3659, 3660, 3661, 3662, 3663, 3664, 3665, 3666, 3667, 3668, 3669, 3670, 3671, 3672, 3673, 3674
 3675, 3676, 3677, 3678, 3679, 3680, 3681, 3682, 3683, 3684, 3685, 3686, 3687, 3688, 3689, 3690
 3691, 3692, 3693, 3694, 3695, 3696, 3697, 3698, 3699, 3700, 3701, 3702, 3703, 3704, 3705, 3706
 3707, 3708, 3709, 3710, 3711, 3712, 3713, 3714, 3715, 3716, 3717, 3718, 3719, 3720, 3721, 3722
** ... 178 like lines cut
*Elset, elset=A, generate
 3361,  6400,     1
*Nset, nset=B
    2,    3,    6,    7,    8,    9,   16,   17,   18,   19,   20,   21,   22,   23,   24,   25
   26,   27,   28,   29,   30,   31,   32,   33,   34,   35,   36,   37,   38,   39,   40,   41
   42,   43,   44,   45,   46,   47,   48,   49,   50,   51,   98,   99,  100,  101,  102,  103
  104,  105,  106,  107,  108,  109,  110,  111,  112,  113,  114,  115,  116,  117,  118,  119
  120,  121,  122,  123,  124,  125,  126,  127,  128,  129,  130,  131,  132,  133,  134,  135
  136,  137,  138,  139,  140,  141,  142,  143,  144,  145,  146,  147,  148,  149,  150,  151
  152,  153,  154,  155,  156,  157,  158,  159,  160,  161,  162,  163,  164,  165,  166,  167
  168,  169,  170,  171,  172,  173,  174,  175,  176,  177,  178,  179,  180,  181,  182,  183
  184,  185,  186,  187,  188,  189,  190,  191,  192,  193,  194,  195,  196,  197,  198,  199
  200,  201,  202,  203,  204,  205,  206,  207,  208,  209,  210,  211,  212,  213,  214,  215
  216,  217,  218,  219,  220,  221,  222,  223,  224,  225,  226,  227,  228,  229,  230,  231
  232,  233,  234,  235,  236,  237,  238,  239,  240,  241,  242,  243,  244,  245,  246,  247
  248,  249,  250,  251,  252,  253,  254,  255,  256,  257,  258,  259,  260,  261,  262,  263
  264,  265,  266,  267,  268,  269,  270,  271,  272,  273,  274,  275,  276,  277,  278,  279
  280,  281,  282,  283,  284,  285,  286,  287,  288,  289,  290,  291,  605,  606,  607,  608
  609,  610,  611,  612,  613,  614,  615,  616,  617,  618,  619,  620,  621,  622,  623,  624
  625,  626,  627,  628,  629,  630,  631,  632,  633,  634,  635,  636,  637,  638,  639,  640
  641,  642,  643,  644,  645,  646,  647,  648,  649,  650,  651,  652,  653,  654,  655,  656
  657,  658,  659,  660,  661,  662,  663,  664,  665,  666,  667,  668,  669,  670,  671,  672
  673,  674,  675,  676,  677,  678,  679,  680,  681,  682,  683,  684,  685,  686,  687,  688
** ... 178 like lines cut
*Elset, elset=B, generate
  169,  3208,     1
*Nset, nset=C
    1,    2,    3,    4,    5,    6,    9,   10,   13,   14,   15,   16,   17,   18,   19,   20
   21,   22,   23,   24,   25,   26,   27,   28,   29,   30,   31,   32,   33,   34,   35,   36
   37,   38,   39,   40,   41,   42,   43,   44,   45,   46,   47,   48,   49,   50,   51,   52
   53,   54,   55,   56,   57,   58,   59,   60,   61,   62,   63,   64,   65,   66,   67,   68
   69,   70,   71,   72,   73,   74,   75,   76,   77,   78,   79,   80,   81,   82,   83,   84
   85,   86,   87,   88,   89,   90,   95,   96,   97,  218,  219,  220,  221,  222,  223,  224
  225,  226,  227,  228,  229,  230,  231,  232,  233,  234,  235,  236,  237,  238,  239,  240
  241,  242,  243,  244,  245,  246,  247,  248,  249,  250,  251,  252,  253,  254,  292,  293
  294,  295,  296,  297,  298,  299,  300,  301,  302,  303,  304,  305,  306,  307,  308,  309
  310,  311,  312,  313,  314,  315,  316,  317,  318,  319,  320,  321,  322,  323,  324,  325
  326,  327,  328,  329,  330,  331,  485,  486,  487,  488,  489,  490,  491,  492,  493,  494
  495,  496,  497,  498,  499,  500,  501,  502,  503,  504,  505,  506,  507,  508,  509,  510
  511,  512,  513,  514,  515,  516,  517,  518,  519,  520,  521,  522,  523,  524,  525,  526
  527,  528,  529,  530,  531,  532,  533,  534,  535,  536,  537,  538,  539,  540,  541,  542
  543,  544,  545,  546,  547,  548,  549,  550,  551,  552,  553,  554,  555,  556,  557,  558
  559,  560,  561,  562,  563,  564,  565,  566,  567,  568,  569,  570,  571,  572,  573,  574
  575,  576,  577,  578,  579,  580,  581,  582,  583,  584,  585,  586,  587,  588,  589,  590
  591,  592, 3528, 3529, 3530, 3531, 3532, 3533, 3534, 3535, 3536, 3537, 3538, 3539, 3540, 3541
 3542, 3543, 3544, 3545, 3546, 3547, 3548, 3549, 3550, 3551, 3552, 3553, 3554, 3555, 3556, 3557
 3558, 3559, 3560, 3561, 3562, 3563, 3564, 3565, 3566, 3567, 3568, 3569, 3570, 3571, 3572, 3573
** ... 5 like lines cut
*Elset, elset=C
    1,    2,    3,    4,    5,    6,    7,    8,    9,   10,   11,   12,   13,   14,   15,   16
   17,   18,   19,   20,   21,   22,   23,   24,   25,   26,   27,   28,   29,   30,   31,   32
   33,   34,   35,   36,   37,   38,   39,   40,   41,   42,   43,   44,   45,   46,   47,   48
   49,   50,   51,   52,   53,   54,   55,   56,   57,   58,   59,   60,   61,   62,   63,   64
   65,   66,   67,   68,   69,   70,   71,   72,   73,   74,   75,   76,   77,   78,   79,   80
   81,   82,   83,   84,   85,   86,   87,   88,   89,   90,   91,   92,   93,   94,   95,   96
   97,   98,   99,  100,  101,  102,  103,  104,  105,  106,  107,  108,  109,  110,  111,  112
  113,  114,  115,  116,  117,  118,  119,  120,  121,  122,  123,  124,  125,  126,  127,  128
  129,  130,  131,  132,  133,  134,  135,  136,  137,  138,  139,  140,  141,  142,  143,  144
  145,  146,  147,  148, 3209, 3210, 3211, 3212, 3213, 3214, 3215, 3216, 3217, 3218, 3219, 3220
 3221, 3222, 3223, 3224, 3225, 3226, 3227, 3228, 3229, 3230, 3231, 3232, 3233, 3234, 3235, 3236
 3237, 3238, 3239, 3240, 3241, 3242, 3243, 3244, 3245, 3246, 3247, 3248, 3249, 3250, 3251, 3252
 3253, 3254, 3255, 3256, 3257, 3258, 3259, 3260, 3261, 3262, 3263, 3264, 3265, 3266, 3267, 3268
 3269, 3270, 3271, 3272, 3273, 3274, 3275, 3276, 3277, 3278, 3279, 3280, 3281, 3282, 3283, 3284
 3285, 3286, 3287, 3288, 3289, 3290, 3291, 3292, 3293, 3294, 3295, 3296, 3297, 3298, 3299, 3300
 3301, 3302, 3303, 3304, 3305, 3306, 3307, 3308, 3309, 3310, 3311, 3312, 3313, 3314, 3315, 3316
 3317, 3318, 3319, 3320, 3321, 3322, 3323, 3324, 3325, 3326, 3327, 3328, 3329, 3330, 3331, 3332
 3333, 3334, 3335, 3336, 3337, 3338, 3339, 3340, 3341, 3342, 3343, 3344, 3345, 3346, 3347, 3348
 3349, 3350, 3351, 3352, 3353, 3354, 3355, 3356, 3357, 3358, 3359, 3360
*Nset, nset=D
   1,   2,   5,   6,  13,  14,  15,  91,  92,  93,  94,  95,  96,  97,  98,  99
 100, 101, 593, 594, 595, 596, 597, 598, 599, 600, 601, 602, 603, 604
*Elset, elset=D, generate
 149,  168,    1
** Section: Section-C
*Solid Section, elset=C, material=Material-C
,
** Section: Section-D
*Solid Section, elset=D, material=Material-D
,
** Section: Section-B
*Solid Section, elset=B, material=Material-B
,
** Section: Section-A
*Solid Section, elset=A, material=Material-A
,
*End Instance
**  
*Nset, nset=Pickup_A, instance=Part-1
 3718, 3756, 3796, 5020, 6483, 6521, 6561
*Nset, nset=Pickup_B, instance=Part-1
  684,  724,  762, 2146, 3370, 3410, 3448
*Nset, nset=Pickup_C, instance=Part-1
  489,  537,  591, 3532, 3583, 3637
*Nset, nset=Pickup_D, instance=Part-1
 593, 595, 597, 600, 602, 604
*Nset, nset=Pickup_all, instance=Part-1
   93,  408,  599,  600,  644, 2066, 3488, 3678, 5100
*Nset, nset=_PickedSet16, internal, instance=Part-1
   3,   4,   7,   8,   9,  10,  11,  12,  52,  53,  54, 181, 182, 183, 184, 185
 186, 187, 188, 189, 190, 191, 192, 193, 194, 195, 196, 197, 198, 199, 200, 201
 202, 203, 204, 205, 206, 207, 208, 209, 210, 211, 212, 213, 214, 215, 216, 217
 255, 256, 257, 258, 259, 260, 261, 262, 263, 264, 265, 266, 267, 268, 269, 270
 271, 272, 273, 274, 275, 276, 277, 278, 279, 280, 281, 282, 283, 284, 285, 286
 287, 288, 289, 290, 291, 329, 330, 331, 332, 333, 334, 335, 336, 337, 338, 339
 340, 341, 342, 343, 344, 345, 346, 347, 348, 349, 350, 351, 352, 353, 354, 355
 356, 357, 358, 359, 360, 361, 362, 363, 364, 365, 366, 367, 368, 448, 449, 450
 451, 452, 453, 454, 455, 456, 457, 458, 459, 460, 461, 462, 463, 464, 465, 466
 467, 468, 469, 470, 471, 472, 473, 474, 475, 476, 477, 478, 479, 480, 481, 482
 483, 484
*Elset, elset=_PickedSet16, internal, instance=Part-1
  145,  146,  147,  148,  169,  248,  249,  328,  329,  408,  409,  488,  489,  568,  569,  648
  649,  728,  729,  808,  809,  888,  889,  968,  969, 1048, 1049, 1128, 1129, 1208, 1209, 1288
 1289, 1368, 1369, 1448, 1449, 1528, 1529, 1608, 1609, 1688, 1689, 1768, 1769, 1848, 1849, 1928
 1929, 2008, 2009, 2088, 2089, 2168, 2169, 2248, 2249, 2328, 2329, 2408, 2409, 2488, 2489, 2568
 2569, 2648, 2649, 2728, 2729, 2808, 2809, 2888, 2889, 2968, 2969, 3048, 3049, 3128, 3129, 3208
 3357, 3358, 3359, 3360, 3361, 3440, 3441, 3520, 3521, 3600, 3601, 3680, 3681, 3760, 3761, 3840
 3841, 3920, 3921, 4000, 4001, 4080, 4081, 4160, 4161, 4240, 4241, 4320, 4321, 4400, 4401, 4480
 4481, 4560, 4561, 4640, 4641, 4720, 4721, 4800, 4801, 4880, 4881, 4960, 4961, 5040, 5041, 5120
 5121, 5200, 5201, 5280, 5281, 5360, 5361, 5440, 5441, 5520, 5521, 5600, 5601, 5680, 5681, 5760
 5761, 5840, 5841, 5920, 5921, 6000, 6001, 6080, 6081, 6160, 6161, 6240, 6241, 6320, 6321, 6400
*Nset, nset=_PickedSet17, internal, instance=Part-1
  11,  12, 369, 370, 371, 372, 373, 374, 375, 376, 377, 378, 379, 380, 381, 382
 383, 384, 385, 386, 387, 388, 389, 390, 391, 392, 393, 394, 395, 396, 397, 398
 399, 400, 401, 402, 403, 404, 405, 406, 407, 408, 409, 410, 411, 412, 413, 414
 415, 416, 417, 418, 419, 420, 421, 422, 423, 424, 425, 426, 427, 428, 429, 430
 431, 432, 433, 434, 435, 436, 437, 438, 439, 440, 441, 442, 443, 444, 445, 446
 447,
*Elset, elset=_PickedSet17, internal, instance=Part-1, generate
 6321,  6400,     1
*Elset, elset=_Top_S4, internal, instance=Part-1, generate
   1,  145,    4
*Elset, elset=_Top_S2, internal, instance=Part-1
  152,  156,  160,  164,  168, 3212, 3216, 3220, 3224, 3228, 3232, 3236, 3240, 3244, 3248, 3252
 3256, 3260, 3264, 3268, 3272, 3276, 3280, 3284, 3288, 3292, 3296, 3300, 3304, 3308, 3312, 3316
 3320, 3324, 3328, 3332, 3336, 3340, 3344, 3348, 3352, 3356, 3360
*Surface, type=ELEMENT, name=Top
_Top_S4, S4
_Top_S2, S2
**
** Nset_python_fill_in_placeholder
**
*End Assembly
** 
** MATERIALS
** 
*Material, name=Material-A
*Density
2039.,
*Elastic
 2e+09, 0.3
*Permeability, specific=10000.
 1e-07, 0.111
*Material, name=Material-B
*Density
2039.,
*Elastic
 2e+09, 0.3
*Permeability, specific=10000.
 1e-05, 0.22
*Material, name=Material-C
*Density
2039.,
*Elastic
 2e+09, 0.3
*Permeability, specific=10000.
 1e-12, 0.00001
*Material, name=Material-D
*Density
2039.,
*Elastic
 2e+09, 0.3
*Permeability, specific=10000.
 0.0001,1.
** 
** BOUNDARY CONDITIONS
** 
** Name: BC_x Type: Displacement/Rotation
*Boundary
_PickedSet16, 1, 1
** Name: BC_y Type: Displacement/Rotation
*Boundary
_PickedSet17, 2, 2
** 
** PREDEFINED FIELDS
** 
** Name: PreDef_EP   Type: Geostatic stress
*Initial Conditions, type=STRESS, GEOSTATIC
Part-1.All, -2.81e+07, 80., -2.82e+07, 0., 0.5, 0.5
** Name: PreDef_PP   Type: Pore pressure
*Initial Conditions, TYPE=PORE PRESSURE
Part-1.All, 7.19e+07
** Name: PreDef_VR-A   Type: Void ratio
*Initial Conditions, TYPE=RATIO
Part-1.A, 0.111
** Name: PreDef_VR-B   Type: Void ratio
*Initial Conditions, TYPE=RATIO
Part-1.B, 0.22
** Name: PreDef_VR-C   Type: Void ratio
*Initial Conditions, TYPE=RATIO
Part-1.C, 0.00001
** Name: PreDef_VR-D   Type: Void ratio
*Initial Conditions, TYPE=RATIO
Part-1.D, 1.
** ----------------------------------------------------------------
** 
** STEP: Geostatic
** 
*Step, name=Geostatic, nlgeom=NO
*Geostatic, utol
1., 1., 1e-05, 1.
** 
** BOUNDARY CONDITIONS
** 
** bc_python_fill_in_placeholder
**
** 
** LOADS
** 
** Name: Gravity   Type: Gravity
*Dload
, GRAV, 9.81, 0., -1.
** Name: Overburden   Type: Pressure
*Dsload
Top, P, 1e+08
** 
** OUTPUT REQUESTS
** 
*Restart, write, frequency=1
** 
** FIELD OUTPUT: F-Output-1
** 
*Output, field
*Node Output
CF, COORD, POR, RF, U
*Element Output, directions=YES
FLUVR, LE, S, SAT, VOIDR
*Contact Output
CDISP, CSTRESS, PFL
** 
** HISTORY OUTPUT: H-Output-1
** 
*Output, history, variable=PRESELECT
*EL FILE, frequency=10000
COORD, VOIDR, POR
*NODE FILE
COORD
*End Step
