** Description:
** 	Simple 2d-cube model to show a pore pressure increase from hydrostatic to 
** approx 4x-higher value. The pore pressure has been changed by a boundary 
** condition on a point in the middle of the 2d-cube. In the first step 
** (Step_Geostatic) the steady state will be established in the model. The 
** second step (Step_PPChange) increases the pore pressure to 1000000 N/m² (4x 
** high) over a duration of 1 day. A third step (Step_Rest) lasts 300 days to 
** establish a steady state with the new boundary conditions.
** Cube_PP-Change_wPPBC has boundary conditions on top and bottom which keep the 
** hydrostatic pressure: top = 0 N/m²; bottom = 490500 N/m²; A third boundary 
** condition changes the pore pressure in the middle of the model. The results 
** show, that the pore pressure increasing leads to a heave while the pore fluid 
** is flowing through the model (consolidation). The pressure at the top and the 
** bottom stay constant at the hydrostatic level (see BC). We have a pore 
** pressure and a stress spot at the injection point.
** 
** Abaqus:
** 	* version: Abaqus 2019
** 	* CAE build version: 2018_09_24-20.41.51 157541
** 
** Modell:
** 	* 2-dimensional
** 	* units: kilogramm, meter, newton, seconds
** 	* standard solver
** 	* size: 50x50m
** 	* created by: Sven F. Biebricher
** 
** Loads:
** 	* gravity: -9.81 m/s²
** 
** Boundary Conditions:
** 	* x/y-axis-fix (u1;u2) on bottom
** 	* x-axis-fix (u1) on left and right sides
** 	* pore pressure: top = 0 N/m²; bottom = 490500 N/m²
** 
** Materials:
** 	* Material_1:
** 		* density: 2000 kg/m³ (dry density)
** 		* elastic: young's modulus: 20000000 N/m²; poisson's ratio: 0.3
** 		* permeability: k = 1E-7; void ratio: 0.3
** 
** Initial conditions:
** 	* geostatic stress: top = 0 N/m²; bottom = -603315 N/m²
** 	* pore pressure: hydrostatic pressure; top = 0 N/m²; bottom = 490500 N/m²
** 	* saturation: 1.0
** 	* void ratio: 1.0
** 
** Mesh:
** 	* size: 1m x 1m
** 	* shape: quad only
** 	* element type: CPE8P
** 		* family: pore fluid/stress
** 		* geometric order: quadratic
** 		* reduced integration: off
** 
** Steps:
** 	* step_geostatic:
** 		* geostatic
** 		* incrementation: fixed (defaults)
** 		* nlgeom: off
** 		
** 	* step_ChangePP:
** 		* soils
** 		* transient consolidation
** 		* period: 1 d (86400 s)
** 		* nlgeom: off
** 		* incrementation: automatic
** 		* max PP change per increment: 50000 N/m²
** 		* Increasing Pore Pressure:
** 			*BC_PP: 1E6 N/m²
** 			
** 	* step_Rest:
** 		* soils
** 		* transient consolidation
** 		* period: 300 d (25920000 s)
** 		* nlgeom: off
** 		* incrementation: automatic
** 		* max PP change per increment: 50000 N/m²
*Heading
** Job name: Cube_PP_SubRTest Model name: Cube_PP-Change_wPPBC
** Generated by: Abaqus/CAE 2019
*Preprint, echo=NO, model=NO, history=NO, contact=NO
**
** PARTS
**
*Part, name=Part_1
*Node
      1,          25.,           0.
      2,          25.,          25.
      3,           0.,          25.
      4,           0.,           0.
      5,          25.,          50.
      6,          50.,          25.
      7,          50.,          50.
      8,           0.,          50.
      9,          50.,           0.
     10,          25.,           1.
     11,          25.,           2.
     12,          25.,           3.
     13,          25.,           4.
     14,          25.,           5.
     15,          25.,           6.
     16,          25.,           7.
     17,          25.,           8.
     18,          25.,           9.
     19,          25.,          10.
     20,          25.,          11.
** ... 7681 like lines cut
*Element, type=CPE8P
  1,    1,   10,  298,  105, 2602, 2603, 2604, 2605
  2,   10,   11,  299,  298, 2606, 2607, 2608, 2603
  3,   11,   12,  300,  299, 2609, 2610, 2611, 2607
  4,   12,   13,  301,  300, 2612, 2613, 2614, 2610
  5,   13,   14,  302,  301, 2615, 2616, 2617, 2613
  6,   14,   15,  303,  302, 2618, 2619, 2620, 2616
  7,   15,   16,  304,  303, 2621, 2622, 2623, 2619
  8,   16,   17,  305,  304, 2624, 2625, 2626, 2622
  9,   17,   18,  306,  305, 2627, 2628, 2629, 2625
 10,   18,   19,  307,  306, 2630, 2631, 2632, 2628
 11,   19,   20,  308,  307, 2633, 2634, 2635, 2631
 12,   20,   21,  309,  308, 2636, 2637, 2638, 2634
 13,   21,   22,  310,  309, 2639, 2640, 2641, 2637
 14,   22,   23,  311,  310, 2642, 2643, 2644, 2640
 15,   23,   24,  312,  311, 2645, 2646, 2647, 2643
 16,   24,   25,  313,  312, 2648, 2649, 2650, 2646
 17,   25,   26,  314,  313, 2651, 2652, 2653, 2649
 18,   26,   27,  315,  314, 2654, 2655, 2656, 2652
 19,   27,   28,  316,  315, 2657, 2658, 2659, 2655
 20,   28,   29,  317,  316, 2660, 2661, 2662, 2658
** ... 2480 like lines cut
*Nset, nset=_PickedSet19, internal, generate
    1,  7701,     1
*Elset, elset=_PickedSet19, internal, generate
    1,  2500,     1
** Section: Section_1
*Solid Section, elset=_PickedSet19, material=Material_1
,
*End Part
**  
**
** ASSEMBLY
**
*Assembly, name=Assembly
**  
*Instance, name=Part_1-1, part=Part_1
*End Instance
**  
*Nset, nset=Set-8, instance=Part_1-1
 2,
*Nset, nset=_PickedSet33, internal, instance=Part_1-1, generate
    1,  7701,     1
*Elset, elset=_PickedSet33, internal, instance=Part_1-1, generate
    1,  2500,     1
*Nset, nset=_PickedSet34, internal, instance=Part_1-1, generate
    1,  7701,     1
*Elset, elset=_PickedSet34, internal, instance=Part_1-1, generate
    1,  2500,     1
*Nset, nset=_PickedSet35, internal, instance=Part_1-1, generate
    1,  7701,     1
*Elset, elset=_PickedSet35, internal, instance=Part_1-1, generate
    1,  2500,     1
*Nset, nset=_PickedSet36, internal, instance=Part_1-1
    1,    4,    9,   82,   83,   84,   85,   86,   87,   88,   89,   90,   91,   92,   93,   94
   95,   96,   97,   98,   99,  100,  101,  102,  103,  104,  105,  250,  251,  252,  253,  254
  255,  256,  257,  258,  259,  260,  261,  262,  263,  264,  265,  266,  267,  268,  269,  270
  271,  272,  273, 2605, 2680, 2731, 2782, 2833, 2884, 2935, 2986, 3037, 3088, 3139, 3190, 3241
 3292, 3343, 3394, 3445, 3496, 3547, 3598, 3649, 3700, 3751, 3802, 3853, 6500, 6550, 6600, 6650
 6700, 6750, 6800, 6850, 6900, 6950, 7000, 7050, 7100, 7150, 7200, 7250, 7300, 7350, 7400, 7450
 7500, 7550, 7600, 7650, 7700
*Elset, elset=_PickedSet36, internal, instance=Part_1-1
    1,   26,   51,   76,  101,  126,  151,  176,  201,  226,  251,  276,  301,  326,  351,  376
  401,  426,  451,  476,  501,  526,  551,  576,  601, 1900, 1925, 1950, 1975, 2000, 2025, 2050
 2075, 2100, 2125, 2150, 2175, 2200, 2225, 2250, 2275, 2300, 2325, 2350, 2375, 2400, 2425, 2450
 2475, 2500
*Nset, nset=_PickedSet37, internal, instance=Part_1-1
    3,    4,    6,    7,    8,    9,   58,   59,   60,   61,   62,   63,   64,   65,   66,   67
   68,   69,   70,   71,   72,   73,   74,   75,   76,   77,   78,   79,   80,   81,  154,  155
  156,  157,  158,  159,  160,  161,  162,  163,  164,  165,  166,  167,  168,  169,  170,  171
  172,  173,  174,  175,  176,  177,  226,  227,  228,  229,  230,  231,  232,  233,  234,  235
  236,  237,  238,  239,  240,  241,  242,  243,  244,  245,  246,  247,  248,  249,  274,  275
  276,  277,  278,  279,  280,  281,  282,  283,  284,  285,  286,  287,  288,  289,  290,  291
  292,  293,  294,  295,  296,  297, 3852, 3855, 3857, 3859, 3861, 3863, 3865, 3867, 3869, 3871
 3873, 3875, 3877, 3879, 3881, 3883, 3885, 3887, 3889, 3891, 3893, 3895, 3897, 3899, 3901, 5152
 5155, 5157, 5159, 5161, 5163, 5165, 5167, 5169, 5171, 5173, 5175, 5177, 5179, 5181, 5183, 5185
 5187, 5189, 5191, 5193, 5195, 5197, 5199, 5201, 6403, 6405, 6407, 6409, 6411, 6413, 6415, 6417
 6419, 6421, 6423, 6425, 6427, 6429, 6431, 6433, 6435, 6437, 6439, 6441, 6443, 6445, 6447, 6449
 6451, 7653, 7655, 7657, 7659, 7661, 7663, 7665, 7667, 7669, 7671, 7673, 7675, 7677, 7679, 7681
 7683, 7685, 7687, 7689, 7691, 7693, 7695, 7697, 7699, 7701
*Elset, elset=_PickedSet37, internal, instance=Part_1-1
  601,  602,  603,  604,  605,  606,  607,  608,  609,  610,  611,  612,  613,  614,  615,  616
  617,  618,  619,  620,  621,  622,  623,  624,  625, 1226, 1227, 1228, 1229, 1230, 1231, 1232
 1233, 1234, 1235, 1236, 1237, 1238, 1239, 1240, 1241, 1242, 1243, 1244, 1245, 1246, 1247, 1248
 1249, 1250, 1851, 1852, 1853, 1854, 1855, 1856, 1857, 1858, 1859, 1860, 1861, 1862, 1863, 1864
 1865, 1866, 1867, 1868, 1869, 1870, 1871, 1872, 1873, 1874, 1875, 2476, 2477, 2478, 2479, 2480
 2481, 2482, 2483, 2484, 2485, 2486, 2487, 2488, 2489, 2490, 2491, 2492, 2493, 2494, 2495, 2496
 2497, 2498, 2499, 2500
*Nset, nset=_PickedSet38, internal, instance=Part_1-1, generate
    1,  7701,     1
*Elset, elset=_PickedSet38, internal, instance=Part_1-1, generate
    1,  2500,     1
*Nset, nset=_PickedSet47, internal, instance=Part_1-1
 2,
*Nset, nset=_PickedSet48, internal, instance=Part_1-1
    5,    7,    8,  178,  179,  180,  181,  182,  183,  184,  185,  186,  187,  188,  189,  190
  191,  192,  193,  194,  195,  196,  197,  198,  199,  200,  201,  202,  203,  204,  205,  206
  207,  208,  209,  210,  211,  212,  213,  214,  215,  216,  217,  218,  219,  220,  221,  222
  223,  224,  225, 3905, 3980, 4031, 4082, 4133, 4184, 4235, 4286, 4337, 4388, 4439, 4490, 4541
 4592, 4643, 4694, 4745, 4796, 4847, 4898, 4949, 5000, 5051, 5102, 5153, 5250, 5300, 5350, 5400
 5450, 5500, 5550, 5600, 5650, 5700, 5750, 5800, 5850, 5900, 5950, 6000, 6050, 6100, 6150, 6200
 6250, 6300, 6350, 6400, 6450
*Elset, elset=_PickedSet48, internal, instance=Part_1-1
  626,  651,  676,  701,  726,  751,  776,  801,  826,  851,  876,  901,  926,  951,  976, 1001
 1026, 1051, 1076, 1101, 1126, 1151, 1176, 1201, 1226, 1275, 1300, 1325, 1350, 1375, 1400, 1425
 1450, 1475, 1500, 1525, 1550, 1575, 1600, 1625, 1650, 1675, 1700, 1725, 1750, 1775, 1800, 1825
 1850, 1875
*Nset, nset=_PickedSet49, internal, instance=Part_1-1
    1,    4,    9,   82,   83,   84,   85,   86,   87,   88,   89,   90,   91,   92,   93,   94
   95,   96,   97,   98,   99,  100,  101,  102,  103,  104,  105,  250,  251,  252,  253,  254
  255,  256,  257,  258,  259,  260,  261,  262,  263,  264,  265,  266,  267,  268,  269,  270
  271,  272,  273, 2605, 2680, 2731, 2782, 2833, 2884, 2935, 2986, 3037, 3088, 3139, 3190, 3241
 3292, 3343, 3394, 3445, 3496, 3547, 3598, 3649, 3700, 3751, 3802, 3853, 6500, 6550, 6600, 6650
 6700, 6750, 6800, 6850, 6900, 6950, 7000, 7050, 7100, 7150, 7200, 7250, 7300, 7350, 7400, 7450
 7500, 7550, 7600, 7650, 7700
*Elset, elset=_PickedSet49, internal, instance=Part_1-1
    1,   26,   51,   76,  101,  126,  151,  176,  201,  226,  251,  276,  301,  326,  351,  376
  401,  426,  451,  476,  501,  526,  551,  576,  601, 1900, 1925, 1950, 1975, 2000, 2025, 2050
 2075, 2100, 2125, 2150, 2175, 2200, 2225, 2250, 2275, 2300, 2325, 2350, 2375, 2400, 2425, 2450
 2475, 2500
*Nset, nset=_PickedSet49_PP_, internal, instance=Part_1-1
   1,   4,   9,  82,  83,  84,  85,  86,  87,  88,  89,  90,  91,  92,  93,  94
  95,  96,  97,  98,  99, 100, 101, 102, 103, 104, 105, 250, 251, 252, 253, 254
 255, 256, 257, 258, 259, 260, 261, 262, 263, 264, 265, 266, 267, 268, 269, 270
 271, 272, 273
*Nset, nset=_PickedSet48_PP_, internal, instance=Part_1-1
   5,   7,   8, 178, 179, 180, 181, 182, 183, 184, 185, 186, 187, 188, 189, 190
 191, 192, 193, 194, 195, 196, 197, 198, 199, 200, 201, 202, 203, 204, 205, 206
 207, 208, 209, 210, 211, 212, 213, 214, 215, 216, 217, 218, 219, 220, 221, 222
 223, 224, 225
 
** Nset_python_fill_in_placeholder

*End Assembly
*Amplitude, name=Amp-1
             0.,              1.,             10.,             1.5
** 
** MATERIALS
** 
*Material, name=Material_1
*Density
2000.,
*Elastic
 2e+07, 0.3
*Permeability, specific=9810.
 1e-07, 0.3
** 
** INTERACTION PROPERTIES
** 
*Surface Interaction, name=InteractionProp
1.,
*Friction
0.,
*Surface Behavior, pressure-overclosure=HARD
** 
** BOUNDARY CONDITIONS
** 
** Name: BC_all Type: Displacement/Rotation
*Boundary
_PickedSet36, 1, 1
_PickedSet36, 2, 2
_PickedSet36, 6, 6
** Name: BC_x Type: Displacement/Rotation
*Boundary
_PickedSet37, 1, 1
** 
** PREDEFINED FIELDS
** 
** Name: PreDef_PorePressure   Type: Pore pressure
*Initial Conditions, TYPE=PORE PRESSURE
_PickedSet33, 6e+05, 50., 6e+05, 0.
** Name: PreDef_Saturation   Type: Saturation
*Initial Conditions, type=SATURATION
_PickedSet34, 1.
** Name: PreDef_VoidRatio   Type: Void ratio
*Initial Conditions, TYPE=RATIO
_PickedSet35, 0.25
** restart_point_python_placeholder
** ----------------------------------------------------------------
** 
** STEP: Step_Geostatic
** 
*Step, name=Step_Geostatic, nlgeom=NO
*Geostatic, utol
1., 1., 1e-05, 1.
** 
** BOUNDARY CONDITIONS
** Name: BC_PP Type: Pore pressure
** bc_python_fill_in_placeholder
** 
** 
** LOADS
** 
** Name: Load_Gravity   Type: Gravity
*Dload
, GRAV, 9.81, 0., -1.
** 
** OUTPUT REQUESTS
** 
*Restart, write, frequency=1
** 
** FIELD OUTPUT: F-Output-1
** 
*Output, field
*Node Output
CF, COORD, POR, RF, U
*Element Output, directions=YES
FLUVR, LE, S, SAT, VOIDR
*Contact Output
CDISP, CSTRESS, PFL
** 
** HISTORY OUTPUT: H-Output-1
** 
*Output, history, variable=PRESELECT
*EL FILE, frequency=10000
COORD, VOIDR, POR
*NODE FILE
COORD
*End Step
